LAMMPS (3 Mar 2020)
#################################
#two psrts have to be corrected
#Vacancy >> type : Fe Fe Fe Fe
#Cu      >> type : Fe Fe Fe Fe Cu
#################################

####
#variable nvt_temp      equal 0.1                     # Temperature
#variable npt_temp      equal 0.1
####

variable mass         equal 55.845                    # Atomic Mass
variable press        equal 1.01325                    # Atomic Mass

units       metal
atom_style  atomic
boundary sf p p
#timestep    0.001
timestep    0.01
read_data   ./Fe.lat
  orthogonal box = (0 0 0) to (868.018 57.1065 57.1065)
  reading atoms ...
  243200 atoms

pair_style  eam/alloy
pair_coeff  * * ./FeCuNi.eam.alloy Fe Fe Fe Fe
#pair_coeff  * * ./new_potential/FeCuNi.eam.alloy Fe Fe Fe Fe Cu
mass        1 55.845

group source type 2
800 atoms in group source
group detector type 3
800 atoms in group detector
variable s equal xcm(source,x)
variable d equal xcm(detector,x)
variable t equal temp
variable v equal vol
variable e equal etotal
variable i equal time
variable FIG string iranai
#
#
fix 1 all nve
thermo 1
#thermo_style custom time v_sox v_dex temp vol etotal v_FIG
#
fix extra all print 1 "$i $s $d $t $v $e" file outp.txt
#
#
minimize 1.0e-16 1.0e-16 10000 10000
  update every 1 steps, delay 0 steps, check yes
Step Temp E_pair E_mol TotEng Press Volume
0            0   -1001847.4            0   -1001847.4   -252.14705    2831021.6
Loop time of 30.1469 on 1 procs for 17 steps with 243200 atoms

Minimization stats:
  Stopping criterion = linesearch alpha is zero
  Energy initial, next-to-last, final =
  Force two-norm initial, final = 7.1081 0.00692763
  Force max component initial, final = 0.198269 0.000126689
  Final line search alpha, max atom move = 0.000244141 3.09298e-08
  Iterations, force evaluations = 17 57

#
###dump 0 all cfg 10 all.*.cfg mass type xs ys zs id
###dump_modify 0 element Fe Fe Fe Fe
#dump_modify 0 element Fe Fe Fe Fe Cu
#

fix 2 source move wiggle 0.1 0.0 0.0 2.0
#
run 800
Step Temp E_pair E_mol TotEng Press Volume
17            0   -1001849.5            0   -1001849.5   -310.07715    2831075.7
Loop time of 466.325 on 1 procs for 800 steps with 243200 atoms

unfix 2
run 1200
Step Temp E_pair E_mol TotEng Press Volume
817   0.56424611   -1001831.8            0   -1001814.1   -314.06578    2831075.7
Loop time of 713.044 on 1 procs for 1200 steps with 243200 atoms

#run 8000
#unfix 2
#run 12000
###################################################
#
#
